Process 6339 launched: '/goinfre/hyeonsok/cpp-modules/module_06/ex02/a.out' (x86_64)
Process 6339 stopped
* thread #1, queue = 'com.apple.main-thread', stop reason = breakpoint 1.1
    frame #0: 0x0000000100003e03 a.out`main at main.cpp:25:8
   22   //   std::cout << "b\n";
   23   // }
   24  
-> 25  
   26   int main(void) {
   27     // Base s_base;
   28     Base *base = new Base;
(lldb) n
Process 6339 stopped
* thread #1, queue = 'com.apple.main-thread', stop reason = step over
    frame #0: 0x0000000100003e0d a.out`main at main.cpp:26:16
   23   // }
   24  
   25  
-> 26   int main(void) {
   27     // Base s_base;
   28     Base *base = new Base;
   29     // uintptr_t 
(lldb) n
Process 6339 stopped
* thread #1, queue = 'com.apple.main-thread', stop reason = step over
    frame #0: 0x0000000100003e33 a.out`main at main.cpp:27:18
   24  
   25  
   26   int main(void) {
-> 27     // Base s_base;
   28     Base *base = new Base;
   29     // uintptr_t 
   30     // Base &base2 = *base;
(lldb) n
Process 6339 stopped
* thread #1, queue = 'com.apple.main-thread', stop reason = step over
    frame #0: 0x0000000100003e3b a.out`main at main.cpp:41:3
   38  
   39     // std::cout << d << '\n';
   40     // std::cout << b << '\n';
-> 41     // fun(d);
   42     // std::cout << sizeof(base) << '\n';
   43     // std::cout << sizeof(derived) << '\n';
   44     return 0;
(lldb) info vtbl base
error: 'info' is not a valid command.
(lldb) v vtbl base
(Base *) base = 0x0000000100504080
error: no variable named 'vtbl' found in this frame
(lldb) p vtbl base
error: expression failed to parse:
error: <user expression 0>:1:1: use of undeclared identifier 'vtbl'
vtbl base
^
(lldb) image lookup -r -v -s "vtable for Base"
1 symbols match the regular expression 'vtable for Base' in /goinfre/hyeonsok/cpp-modules/module_06/ex02/a.out:
        Address: a.out[0x0000000100004048] (a.out.__DATA_CONST.__const + 0)
        Summary: a.out`vtable for Base
         Module: file = "/goinfre/hyeonsok/cpp-modules/module_06/ex02/a.out", arch = "x86_64"
         Symbol: id = {0x0000008e}, range = [0x0000000100004048-0x0000000100004068), name="vtable for Base", mangled="_ZTV4Base"

(lldb) n
Process 6339 stopped
* thread #1, queue = 'com.apple.main-thread', stop reason = step over
    frame #0: 0x0000000100003e42 a.out`main at main.cpp:42:1
   39     // std::cout << d << '\n';
   40     // std::cout << b << '\n';
   41     // fun(d);
-> 42     // std::cout << sizeof(base) << '\n';
   43     // std::cout << sizeof(derived) << '\n';
   44     return 0;
   45   }
(lldb) image lookup -r -v -s "vtable for Base"
1 symbols match the regular expression 'vtable for Base' in /goinfre/hyeonsok/cpp-modules/module_06/ex02/a.out:
        Address: a.out[0x0000000100004048] (a.out.__DATA_CONST.__const + 0)
        Summary: a.out`vtable for Base
         Module: file = "/goinfre/hyeonsok/cpp-modules/module_06/ex02/a.out", arch = "x86_64"
         Symbol: id = {0x0000008e}, range = [0x0000000100004048-0x0000000100004068), name="vtable for Base", mangled="_ZTV4Base"

(lldb) image lookup -r -v -s "vtable for A"
1 symbols match the regular expression 'vtable for A' in /goinfre/hyeonsok/cpp-modules/module_06/ex02/a.out:
        Address: a.out[0x0000000100004078] (a.out.__DATA_CONST.__const + 48)
        Summary: a.out`vtable for A
         Module: file = "/goinfre/hyeonsok/cpp-modules/module_06/ex02/a.out", arch = "x86_64"
         Symbol: id = {0x00000090}, range = [0x0000000100004078-0x0000000100004098), name="vtable for A", mangled="_ZTV1A"

(lldb) image lookup -r -v -s "vtable for B"
2 symbols match the regular expression 'vtable for B' in /goinfre/hyeonsok/cpp-modules/module_06/ex02/a.out:
        Address: a.out[0x0000000100004048] (a.out.__DATA_CONST.__const + 0)
        Summary: a.out`vtable for Base
         Module: file = "/goinfre/hyeonsok/cpp-modules/module_06/ex02/a.out", arch = "x86_64"
         Symbol: id = {0x0000008e}, range = [0x0000000100004048-0x0000000100004068), name="vtable for Base", mangled="_ZTV4Base"
        Address: a.out[0x00000001000040b0] (a.out.__DATA_CONST.__const + 104)
        Summary: a.out`vtable for B
         Module: file = "/goinfre/hyeonsok/cpp-modules/module_06/ex02/a.out", arch = "x86_64"
         Symbol: id = {0x00000092}, range = [0x00000001000040b0-0x00000001000040d0), name="vtable for B", mangled="_ZTV1B"

(lldb) image lookup -r -v -s "vtable for C"
1 symbols match the regular expression 'vtable for C' in /goinfre/hyeonsok/cpp-modules/module_06/ex02/a.out:
        Address: a.out[0x00000001000040e8] (a.out.__DATA_CONST.__const + 160)
        Summary: a.out`vtable for C
         Module: file = "/goinfre/hyeonsok/cpp-modules/module_06/ex02/a.out", arch = "x86_64"
         Symbol: id = {0x00000094}, range = [0x00000001000040e8-0x0000000100004108), name="vtable for C", mangled="_ZTV1C"
기반 Base A   B C 
(lldb) mem r 0x0000000100004048
ambiguous command 'memory r'. Possible completions:
        read
        region
(lldb) mem read 0x0000000100004048
0x100004048: 00 00 00 00 00 00 00 00 68 40 00 00 01 00 00 00  ........h@......
0x100004058: e0 39 00 00 01 00 00 00 00 3a 00 00 01 00 00 00  .9.......:......
(lldb) mem region 0x0000000100004048
[0x0000000100004000-0x0000000100008000) r-- __DATA_CONST
(lldb) memory read --size 4 --format x -- 0x0000000100004048
0x100004048: 0x00000000 0x00000000 0x00004068 0x00000001
0x100004058: 0x000039e0 0x00000001 0x00003a00 0x00000001
(lldb) memory read --size 8 --format x -- 0x0000000100004048
0x100004048: 0x0000000000000000 0x0000000100004068
0x100004058: 0x00000001000039e0 0x0000000100003a00
0x100004068: 0x00007fff901029f0 0x0000000100003f48
0x100004078: 0x0000000000000000 0x0000000100004098
(lldb) im dump sections
Dumping sections for 44 modules.
Sections for '/goinfre/hyeonsok/cpp-modules/module_06/ex02/a.out' (x86_64):
  SectID     Type             Load Address                             Perm File Off.  File Size  Flags      Section Name
  ---------- ---------------- ---------------------------------------  ---- ---------- ---------- ---------- ----------------------------
  0x00000100 container        [0x0000000000000000-0x0000000100000000)* ---  0x00000000 0x00000000 0x00000000 a.out.__PAGEZERO
  0x00000200 container        [0x0000000100000000-0x0000000100004000)  r-x  0x00000000 0x00004000 0x00000000 a.out.__TEXT
  0x00000001 code             [0x0000000100003910-0x0000000100003ea0)  r-x  0x00003910 0x00000590 0x80000400 a.out.__TEXT.__text
  0x00000002 code             [0x0000000100003ea0-0x0000000100003ec4)  r-x  0x00003ea0 0x00000024 0x80000408 a.out.__TEXT.__stubs
  0x00000003 code             [0x0000000100003ec4-0x0000000100003efc)  r-x  0x00003ec4 0x00000038 0x80000400 a.out.__TEXT.__stub_helper
  0x00000004 regular          [0x0000000100003efc-0x0000000100003f48)  r-x  0x00003efc 0x0000004c 0x00000000 a.out.__TEXT.__gcc_except_tab
  0x00000005 regular          [0x0000000100003f48-0x0000000100003f57)  r-x  0x00003f48 0x0000000f 0x00000000 a.out.__TEXT.__const
  0x00000006 compact-unwind   [0x0000000100003f58-0x0000000100003ffc)  r-x  0x00003f58 0x000000a4 0x00000000 a.out.__TEXT.__unwind_info
  0x00000300 container        [0x0000000100004000-0x0000000100008000)  rw-  0x00004000 0x00004000 0x00000010 a.out.__DATA_CONST
  0x00000007 data-ptrs        [0x0000000100004000-0x0000000100004040)  rw-  0x00004000 0x00000040 0x00000006 a.out.__DATA_CONST.__got
  0x00000008 data-ptrs        [0x0000000100004040-0x0000000100004048)  rw-  0x00004040 0x00000008 0x00000009 a.out.__DATA_CONST.__mod_init_func
  0x00000009 regular          [0x0000000100004048-0x0000000100004120)  rw-  0x00004048 0x000000d8 0x00000000 a.out.__DATA_CONST.__const
  0x00000400 container        [0x0000000100008000-0x000000010000c000)  rw-  0x00008000 0x00004000 0x00000000 a.out.__DATA
  0x0000000a data-ptrs        [0x0000000100008000-0x0000000100008030)  rw-  0x00008000 0x00000030 0x00000007 a.out.__DATA.__la_symbol_ptr
  0x0000000b data             [0x0000000100008030-0x0000000100008038)  rw-  0x00008030 0x00000008 0x00000000 a.out.__DATA.__data
  0x0000000c zero-fill        [0x0000000100008038-0x0000000100008050)  rw-  0x00000000 0x00000000 0x00000001 a.out.__DATA.__common
  0x00000500 container        [0x000000010000c000-0x0000000100010000)  r--  0x0000c000 0x000015c0 0x00000000 a.out.__LINKEDIT
  0x00000200 container        [0x000000010000d000-0x0000000100016000)* rw-  0x00002000 0x00008c5c 0x00000000 a.out.__DWARF
  0x00000001 dwarf-line       [0x000000010000d000-0x000000010000dcf3)* rw-  0x00002000 0x00000cf3 0x00000000 a.out.__DWARF.__debug_line
  0x00000002 dwarf-pubnames   [0x000000010000dcf3-0x000000010000df7b)* rw-  0x00002cf3 0x00000288 0x00000000 a.out.__DWARF.__debug_pubnames
  0x00000003 dwarf-pubtypes   [0x000000010000df7b-0x000000010000e54d)* rw-  0x00002f7b 0x000005d2 0x00000000 a.out.__DWARF.__debug_pubtypes
  0x00000004 dwarf-aranges    [0x000000010000e54d-0x000000010000e71d)* rw-  0x0000354d 0x000001d0 0x00000000 a.out.__DWARF.__debug_aranges
  0x00000005 dwarf-ranges     [0x000000010000e71d-0x000000010000e8cd)* rw-  0x0000371d 0x000001b0 0x00000000 a.out.__DWARF.__debug_ranges
  0x00000006 dwarf-info       [0x000000010000e8cd-0x000000010001362a)* rw-  0x000038cd 0x00004d5d 0x00000000 a.out.__DWARF.__debug_info
  0x00000007 dwarf-abbrev     [0x000000010001362a-0x00000001000138f8)* rw-  0x0000862a 0x000002ce 0x00000000 a.out.__DWARF.__debug_abbrev
  0x00000008 dwarf-str        [0x00000001000138f8-0x0000000100014c6a)* rw-  0x000088f8 0x00001372 0x00000000 a.out.__DWARF.__debug_str
  0x00000009 apple-names      [0x0000000100014c6a-0x0000000100015096)* rw-  0x00009c6a 0x0000042c 0x00000000 a.out.__DWARF.__apple_names
  0x0000000a apple-namespaces [0x0000000100015096-0x00000001000150f6)* rw-  0x0000a096 0x00000060 0x00000000 a.out.__DWARF.__apple_namespac
  0x0000000b apple-types      [0x00000001000150f6-0x0000000100015c38)* rw-  0x0000a0f6 0x00000b42 0x00000000 a.out.__DWARF.__apple_types
  0x0000000c apple-objc       [0x0000000100015c38-0x0000000100015c5c)* rw-  0x0000ac38 0x00000024 0x00000000 a.out.__DWARF.__apple_objc
Sections for '/usr/lib/dyld' (x86_64):
  SectID     Type             Load Address                             Perm File Off.  File Size  Flags      Section Name
  ---------- ---------------- ---------------------------------------  ---- ---------- ---------- ---------- ----------------------------
  0x00000100 container        [0x0000000100010000-0x00000001000a3000)  r-x  0x00000000 0x00093000 0x00000000 dyld.__TEXT
  0x00000001 code             [0x0000000100011000-0x000000010008f71f)  r-x  0x00001000 0x0007e71f 0x80000400 dyld.__TEXT.__text
  0x00000002 regular          [0x000000010008f720-0x000000010008f724)  r-x  0x0007f720 0x00000004 0x00000016 dyld.__TEXT.__init_offsets
  0x00000003 regular          [0x000000010008f740-0x0000000100090570)  r-x  0x0007f740 0x00000e30 0x00000000 dyld.__TEXT.__const
  0x00000004 regular          [0x0000000100090570-0x0000000100091790)  r-x  0x00080570 0x00001220 0x00000000 dyld.__TEXT.__gcc_except_tab
  0x00000005 data-cstr        [0x0000000100091790-0x00000001000a01d0)  r-x  0x00081790 0x0000ea40 0x00000002 dyld.__TEXT.__cstring
  0x00000006 compact-unwind   [0x00000001000a01d0-0x00000001000a1c28)  r-x  0x000901d0 0x00001a58 0x00000000 dyld.__TEXT.__unwind_info
  0x00000007 eh-frame         [0x00000001000a1c28-0x00000001000a2268)  r-x  0x00091c28 0x00000640 0x00000000 dyld.__TEXT.__eh_frame
  0x00000200 container        [0x00000001000a3000-0x00000001000a8000)  rw-  0x00093000 0x00005000 0x00000010 dyld.__DATA_CONST
  0x00000008 data-ptrs        [0x00000001000a3000-0x00000001000a3028)  rw-  0x00093000 0x00000028 0x00000006 dyld.__DATA_CONST.__got
  0x00000009 regular          [0x00000001000a3030-0x00000001000a7848)  rw-  0x00093030 0x00004818 0x00000000 dyld.__DATA_CONST.__const
  0x00000300 container        [0x00000001000a8000-0x00000001000de000)  rw-  0x00098000 0x00001000 0x00000000 dyld.__DATA
  0x0000000a regular          [0x00000001000a8000-0x00000001000a8148)  rw-  0x00098000 0x00000148 0x00000000 dyld.__DATA.__all_image_info
  0x0000000b regular          [0x00000001000a8148-0x00000001000a8188)  rw-  0x00098148 0x00000040 0x00000000 dyld.__DATA.__crash_info
  0x0000000c data             [0x00000001000a8190-0x00000001000a8dc0)  rw-  0x00098190 0x00000c30 0x00000000 dyld.__DATA.__data
  0x0000000d zero-fill        [0x00000001000a8dc0-0x00000001000db729)  rw-  0x00000000 0x00000000 0x00000001 dyld.__DATA.__bss
  0x0000000e zero-fill        [0x00000001000db740-0x00000001000dd6c0)  rw-  0x00000000 0x00000000 0x00000001 dyld.__DATA.__common
  0x00000400 container        [0x00000001000de000-0x0000000100116000)  r--  0x00099000 0x00037840 0x00000000 dyld.__LINKEDIT
Sections for '/usr/lib/libc++.1.dylib' (x86_64):
  SectID     Type             Load Address                             Perm File Off.  File Size  Flags      Section Name
  ---------- ---------------- ---------------------------------------  ---- ---------- ---------- ---------- ----------------------------
  0x00000100 container        [0x00007fff66d5e000-0x00007fff66db1000)  r-x  0x00000000 0x00053000 0x00000000 libc++.1.dylib.__TEXT
  0x00000001 code             [0x00007fff66d5f990-0x00007fff66da72c0)  r-x  0x00001990 0x00047930 0x80000400 libc++.1.dylib.__TEXT.__text
  0x00000002 code             [0x00007fff66da72c0-0x00007fff66da7680)  r-x  0x000492c0 0x000003c0 0x80000408 libc++.1.dylib.__TEXT.__stubs
  0x00000003 code             [0x00007fff66da7680-0x00007fff66da7ca8)  r-x  0x00049680 0x00000628 0x80000400 libc++.1.dylib.__TEXT.__stub_helper
  0x00000004 regular          [0x00007fff66da7ca8-0x00007fff66dabb1c)  r-x  0x00049ca8 0x00003e74 0x00000000 libc++.1.dylib.__TEXT.__gcc_except_tab
  0x00000005 data-cstr        [0x00007fff66dabb1c-0x00007fff66dacea9)  r-x  0x0004db1c 0x0000138d 0x00000002 libc++.1.dylib.__TEXT.__cstring
  0x00000006 regular          [0x00007fff66daceb0-0x00007fff66daebc8)  r-x  0x0004eeb0 0x00001d18 0x00000000 libc++.1.dylib.__TEXT.__const
  0x00000007 compact-unwind   [0x00007fff66daebc8-0x00007fff66db0fa4)  r-x  0x00050bc8 0x000023dc 0x00000000 libc++.1.dylib.__TEXT.__unwind_info
  0x00000008 eh-frame         [0x00007fff66db0fa8-0x00007fff66db1000)  r-x  0x00052fa8 0x00000058 0x00000000 libc++.1.dylib.__TEXT.__eh_frame
  0x00000200 container        [0x00007fff900f8000-0x00007fff900ff8e8)  rw-  0x2939a000 0x00006000 0x00000000 libc++.1.dylib.__DATA
  0x00000009 data-ptrs        [0x00007fff900f8000-0x00007fff900f8008)  rw-  0x2939a000 0x00000008 0x00000006 libc++.1.dylib.__DATA.__nl_symbol_ptr
  0x0000000a data-ptrs        [0x00007fff900f8008-0x00007fff900f80f0)  rw-  0x2939a008 0x000000e8 0x00000006 libc++.1.dylib.__DATA.__got
  0x0000000b data-ptrs        [0x00007fff900f80f0-0x00007fff900f85f0)  rw-  0x2939a0f0 0x00000500 0x00000007 libc++.1.dylib.__DATA.__la_symbol_ptr
  0x0000000c data-ptrs        [0x00007fff900f85f0-0x00007fff900f85f8)  rw-  0x2939a5f0 0x00000008 0x00000009 libc++.1.dylib.__DATA.__mod_init_func
  0x0000000d regular          [0x00007fff900f8600-0x00007fff900fc658)  rw-  0x2939a600 0x00004058 0x00000000 libc++.1.dylib.__DATA.__const
  0x0000000e data             [0x00007fff900fd000-0x00007fff900fd600)  rw-  0x2939f000 0x00000600 0x00000000 libc++.1.dylib.__DATA.__data
  0x0000000f zero-fill        [0x00007fff900fd600-0x00007fff900fdba8)  rw-  0x2939f600 0x000005a8 0x00000001 libc++.1.dylib.__DATA.__common
  0x00000010 zero-fill        [0x00007fff900fdbb0-0x00007fff900ff8e8)  rw-  0x2939fbb0 0x00001d38 0x00000001 libc++.1.dylib.__DATA.__bss
  0x00000300 container        [0x00007fffc3288000-0x00007fffdb6ff1f8)  r--  0x5c52a000 0x184771f8 0x00000000 libc++.1.dylib.__LINKEDIT
Sections for '/usr/lib/libSystem.B.dylib' (x86_64):
  SectID     Type             Load Address                             Perm File Off.  File Size  Flags      Section Name
  ---------- ---------------- ---------------------------------------  ---- ---------- ---------- ---------- ----------------------------
  0x00000100 container        [0x00007fff66a78000-0x00007fff66a7a000)  r-x  0x00000000 0x00002000 0x00000000 libSystem.B.dylib.__TEXT
  0x00000001 code             [0x00007fff66a796b5-0x00007fff66a79ace)  r-x  0x000016b5 0x00000419 0x80000400 libSystem.B.dylib.__TEXT.__text
  0x00000002 code             [0x00007fff66a79ace-0x00007fff66a79c78)  r-x  0x00001ace 0x000001aa 0x80000408 libSystem.B.dylib.__TEXT.__stubs
  0x00000003 code             [0x00007fff66a79c78-0x00007fff66a79f4e)  r-x  0x00001c78 0x000002d6 0x80000400 libSystem.B.dylib.__TEXT.__stub_helper
  0x00000004 regular          [0x00007fff66a79f50-0x00007fff66a79f90)  r-x  0x00001f50 0x00000040 0x00000000 libSystem.B.dylib.__TEXT.__const
  0x00000005 data-cstr        [0x00007fff66a79f90-0x00007fff66a79fa1)  r-x  0x00001f90 0x00000011 0x00000002 libSystem.B.dylib.__TEXT.__cstring
  0x00000006 compact-unwind   [0x00007fff66a79fa4-0x00007fff66a7a000)  r-x  0x00001fa4 0x0000005c 0x00000000 libSystem.B.dylib.__TEXT.__unwind_info
  0x00000200 container        [0x00007fff900d0ca0-0x00007fff900d0fc8)  rw-  0x29658ca0 0x00000328 0x00000000 libSystem.B.dylib.__DATA
  0x00000007 data-ptrs        [0x00007fff900d0ca0-0x00007fff900d0ca8)  rw-  0x29658ca0 0x00000008 0x00000006 libSystem.B.dylib.__DATA.__nl_symbol_ptr
  0x00000008 data-ptrs        [0x00007fff900d0ca8-0x00007fff900d0cb0)  rw-  0x29658ca8 0x00000008 0x00000006 libSystem.B.dylib.__DATA.__got
  0x00000009 data-ptrs        [0x00007fff900d0cb0-0x00007fff900d0ee8)  rw-  0x29658cb0 0x00000238 0x00000007 libSystem.B.dylib.__DATA.__la_symbol_ptr
  0x0000000a data-ptrs        [0x00007fff900d0ee8-0x00007fff900d0ef0)  rw-  0x29658ee8 0x00000008 0x00000009 libSystem.B.dylib.__DATA.__mod_init_func
  0x0000000b regular          [0x00007fff900d0ef0-0x00007fff900d0fb8)  rw-  0x29658ef0 0x000000c8 0x00000000 libSystem.B.dylib.__DATA.__const
  0x0000000c data             [0x00007fff900d0fb8-0x00007fff900d0fc0)  rw-  0x29658fb8 0x00000008 0x00000000 libSystem.B.dylib.__DATA.__data
  0x0000000d zero-fill        [0x00007fff900d0fc0-0x00007fff900d0fc8)  rw-  0x29658fc0 0x00000008 0x00000001 libSystem.B.dylib.__DATA.__common
  0x00000300 container        [0x00007fffc3288000-0x00007fffdb6ff1f8)  r--  0x5c810000 0x184771f8 0x00000000 libSystem.B.dylib.__LINKEDIT
Sections for '/usr/lib/libc++abi.dylib' (x86_64):
  SectID     Type             Load Address                             Perm File Off.  File Size  Flags      Section Name
  ---------- ---------------- ---------------------------------------  ---- ---------- ---------- ---------- ----------------------------
  0x00000100 container        [0x00007fff66db1000-0x00007fff66dc7000)  r-x  0x00000000 0x00016000 0x00000000 libc++abi.dylib.__TEXT
  0x00000001 code             [0x00007fff66db26f0-0x00007fff66dc3ff4)  r-x  0x000016f0 0x00011904 0x80000400 libc++abi.dylib.__TEXT.__text
  0x00000002 code             [0x00007fff66dc3ff4-0x00007fff66dc4120)  r-x  0x00012ff4 0x0000012c 0x80000408 libc++abi.dylib.__TEXT.__stubs
  0x00000003 code             [0x00007fff66dc4120-0x00007fff66dc42d4)  r-x  0x00013120 0x000001b4 0x80000400 libc++abi.dylib.__TEXT.__stub_helper
  0x00000004 data-cstr        [0x00007fff66dc42d4-0x00007fff66dc5176)  r-x  0x000132d4 0x00000ea2 0x00000002 libc++abi.dylib.__TEXT.__cstring
  0x00000005 regular          [0x00007fff66dc5178-0x00007fff66dc5598)  r-x  0x00014178 0x00000420 0x00000000 libc++abi.dylib.__TEXT.__gcc_except_tab
  0x00000006 regular          [0x00007fff66dc5598-0x00007fff66dc68f0)  r-x  0x00014598 0x00001358 0x00000000 libc++abi.dylib.__TEXT.__const
  0x00000007 compact-unwind   [0x00007fff66dc68f0-0x00007fff66dc6ffc)  r-x  0x000158f0 0x0000070c 0x00000000 libc++abi.dylib.__TEXT.__unwind_info
  0x00000200 container        [0x00007fff900ff8f0-0x00007fff90102f38)  rw-  0x2934e8f0 0x00003648 0x00000000 libc++abi.dylib.__DATA
  0x00000008 data-ptrs        [0x00007fff900ff8f0-0x00007fff900ff8f8)  rw-  0x2934e8f0 0x00000008 0x00000006 libc++abi.dylib.__DATA.__nl_symbol_ptr
  0x00000009 data-ptrs        [0x00007fff900ff8f8-0x00007fff900ff920)  rw-  0x2934e8f8 0x00000028 0x00000006 libc++abi.dylib.__DATA.__got
  0x0000000a data-ptrs        [0x00007fff900ff920-0x00007fff900ffab0)  rw-  0x2934e920 0x00000190 0x00000007 libc++abi.dylib.__DATA.__la_symbol_ptr
  0x0000000b regular          [0x00007fff900ffab0-0x00007fff90102bc0)  rw-  0x2934eab0 0x00003110 0x00000000 libc++abi.dylib.__DATA.__const
  0x0000000c data             [0x00007fff90102bc0-0x00007fff90102c98)  rw-  0x29351bc0 0x000000d8 0x00000000 libc++abi.dylib.__DATA.__data
  0x0000000d regular          [0x00007fff90102c98-0x00007fff90102cd8)  rw-  0x29351c98 0x00000040 0x00000000 libc++abi.dylib.__DATA.__crash_info
  0x0000000e zero-fill        [0x00007fff90102ce0-0x00007fff90102f30)  rw-  0x29351ce0 0x00000250 0x00000001 libc++abi.dylib.__DATA.__bss
  0x0000000f zero-fill        [0x00007fff90102f30-0x00007fff90102f38)  rw-  0x29351f30 0x00000008 0x00000001 libc++abi.dylib.__DATA.__common
  0x00000300 container        [0x00007fffc3288000-0x00007fffdb6ff1f8)  r--  0x5c4d7000 0x184771f8 0x00000000 libc++abi.dylib.__LINKEDIT
Sections for '/usr/lib/system/libcache.dylib' (x86_64):
  SectID     Type             Load Address                             Perm File Off.  File Size  Flags      Section Name
  ---------- ---------------- ---------------------------------------  ---- ---------- ---------- ---------- ----------------------------
  0x00000100 container        [0x00007fff69877000-0x00007fff6987d000)  r-x  0x00000000 0x00006000 0x00000000 libcache.dylib.__TEXT
  0x00000001 code             [0x00007fff698787c8-0x00007fff6987b3ab)  r-x  0x000017c8 0x00002be3 0x80000400 libcache.dylib.__TEXT.__text
  0x00000002 code             [0x00007fff6987b3ac-0x00007fff6987b436)  r-x  0x000043ac 0x0000008a 0x80000408 libcache.dylib.__TEXT.__stubs
  0x00000003 code             [0x00007fff6987b438-0x00007fff6987b52e)  r-x  0x00004438 0x000000f6 0x80000400 libcache.dylib.__TEXT.__stub_helper
  0x00000004 regular          [0x00007fff6987b530-0x00007fff6987b570)  r-x  0x00004530 0x00000040 0x00000000 libcache.dylib.__TEXT.__const
  0x00000005 data-cstr        [0x00007fff6987b570-0x00007fff6987b6b2)  r-x  0x00004570 0x00000142 0x00000002 libcache.dylib.__TEXT.__cstring
  0x00000006 debug            [0x00007fff6987b6b2-0x00007fff6987cee9)  r-x  0x000046b2 0x00001837 0x0000000f libcache.dylib.__TEXT.__dof_cache
  0x00000007 compact-unwind   [0x00007fff6987ceec-0x00007fff6987cff4)  r-x  0x00005eec 0x00000108 0x00000000 libcache.dylib.__TEXT.__unwind_info
  0x00000200 container        [0x00007fff90579620-0x00007fff90579748)  rw-  0x26d02620 0x00000128 0x00000000 libcache.dylib.__DATA
  0x00000008 data-ptrs        [0x00007fff90579620-0x00007fff90579628)  rw-  0x26d02620 0x00000008 0x00000006 libcache.dylib.__DATA.__nl_symbol_ptr
  0x00000009 data-ptrs        [0x00007fff90579628-0x00007fff90579650)  rw-  0x26d02628 0x00000028 0x00000006 libcache.dylib.__DATA.__got
  0x0000000a data-ptrs        [0x00007fff90579650-0x00007fff90579708)  rw-  0x26d02650 0x000000b8 0x00000007 libcache.dylib.__DATA.__la_symbol_ptr
  0x0000000b regular          [0x00007fff90579708-0x00007fff90579748)  rw-  0x26d02708 0x00000040 0x00000000 libcache.dylib.__DATA.__const
  0x00000300 container        [0x00007fffc3288000-0x00007fffdb6ff1f8)  r--  0x59a11000 0x184771f8 0x00000000 libcache.dylib.__LINKEDIT
Sections for '/usr/lib/system/libcommonCrypto.dylib' (x86_64):
  SectID     Type             Load Address                             Perm File Off.  File Size  Flags      Section Name
  ---------- ---------------- ---------------------------------------  ---- ---------- ---------- ---------- ----------------------------
  0x00000100 container        [0x00007fff6987d000-0x00007fff69889000)  r-x  0x00000000 0x0000c000 0x00000000 libcommonCrypto.dylib.__TEXT
  0x00000001 code             [0x00007fff6987df40-0x00007fff698878cc)  r-x  0x00000f40 0x0000998c 0x80000400 libcommonCrypto.dylib.__TEXT.__text
  0x00000002 code             [0x00007fff698878cc-0x00007fff69887cec)  r-x  0x0000a8cc 0x00000420 0x80000408 libcommonCrypto.dylib.__TEXT.__stubs
  0x00000003 code             [0x00007fff69887cec-0x00007fff698883dc)  r-x  0x0000acec 0x000006f0 0x80000400 libcommonCrypto.dylib.__TEXT.__stub_helper
  0x00000004 data-cstr        [0x00007fff698883dc-0x00007fff698886d8)  r-x  0x0000b3dc 0x000002fc 0x00000002 libcommonCrypto.dylib.__TEXT.__cstring
  0x00000005 regular          [0x00007fff698886e0-0x00007fff6988899c)  r-x  0x0000b6e0 0x000002bc 0x00000000 libcommonCrypto.dylib.__TEXT.__const
  0x00000006 data-cstr        [0x00007fff698889a0-0x00007fff698889c9)  r-x  0x0000b9a0 0x00000029 0x00000002 libcommonCrypto.dylib.__TEXT.__oslogstring
  0x00000007 compact-unwind   [0x00007fff698889cc-0x00007fff69888d34)  r-x  0x0000b9cc 0x00000368 0x00000000 libcommonCrypto.dylib.__TEXT.__unwind_info
  0x00000008 eh-frame         [0x00007fff69888d38-0x00007fff69889000)  r-x  0x0000bd38 0x000002c8 0x00000000 libcommonCrypto.dylib.__TEXT.__eh_frame
  0x00000200 container        [0x00007fff90579750-0x00007fff9057ac50)  rw-  0x26cfc750 0x00001500 0x00000000 libcommonCrypto.dylib.__DATA
  0x00000009 data-ptrs        [0x00007fff90579750-0x00007fff90579758)  rw-  0x26cfc750 0x00000008 0x00000006 libcommonCrypto.dylib.__DATA.__nl_symbol_ptr
  0x0000000a data-ptrs        [0x00007fff90579758-0x00007fff905797a8)  rw-  0x26cfc758 0x00000050 0x00000006 libcommonCrypto.dylib.__DATA.__got
  0x0000000b data-ptrs        [0x00007fff905797a8-0x00007fff90579d28)  rw-  0x26cfc7a8 0x00000580 0x00000007 libcommonCrypto.dylib.__DATA.__la_symbol_ptr
  0x0000000c regular          [0x00007fff90579d30-0x00007fff9057ac30)  rw-  0x26cfcd30 0x00000f00 0x00000000 libcommonCrypto.dylib.__DATA.__const
  0x0000000d data             [0x00007fff9057ac30-0x00007fff9057ac50)  rw-  0x26cfdc30 0x00000020 0x00000000 libcommonCrypto.dylib.__DATA.__data
  0x00000300 container        [0x00007fffc3288000-0x00007fffdb6ff1f8)  r--  0x59a0b000 0x184771f8 0x00000000 libcommonCrypto.dylib.__LINKEDIT
Sections for '/usr/lib/system/libcompiler_rt.dylib' (x86_64):
  SectID     Type             Load Address                             Perm File Off.  File Size  Flags      Section Name
  ---------- ---------------- ---------------------------------------  ---- ---------- ---------- ---------- ----------------------------
  0x00000100 container        [0x00007fff69889000-0x00007fff69891000)  r-x  0x00000000 0x00008000 0x00000000 libcompiler_rt.dylib.__TEXT
  0x00000001 code             [0x00007fff6988a1c8-0x00007fff6988ebc5)  r-x  0x000011c8 0x000049fd 0x80000400 libcompiler_rt.dylib.__TEXT.__text
  0x00000002 code             [0x00007fff6988ebc6-0x00007fff6988ec2c)  r-x  0x00005bc6 0x00000066 0x80000408 libcompiler_rt.dylib.__TEXT.__stubs
  0x00000003 code             [0x00007fff6988ec2c-0x00007fff6988ece6)  r-x  0x00005c2c 0x000000ba 0x80000400 libcompiler_rt.dylib.__TEXT.__stub_helper
  0x00000004 data-cstr        [0x00007fff6988ece6-0x00007fff6988f53f)  r-x  0x00005ce6 0x00000859 0x00000002 libcompiler_rt.dylib.__TEXT.__cstring
  0x00000005 regular          [0x00007fff6988f540-0x00007fff6988f7d0)  r-x  0x00006540 0x00000290 0x00000000 libcompiler_rt.dylib.__TEXT.__const
  0x00000006 compact-unwind   [0x00007fff6988f7d0-0x00007fff6988fa38)  r-x  0x000067d0 0x00000268 0x00000000 libcompiler_rt.dylib.__TEXT.__unwind_info
  0x00000007 eh-frame         [0x00007fff6988fa38-0x00007fff69891000)  r-x  0x00006a38 0x000015c8 0x00000000 libcompiler_rt.dylib.__TEXT.__eh_frame
  0x00000200 container        [0x00007fff9057ac50-0x00007fff9057bcf0)  rw-  0x26cf1c50 0x00001000 0x00000000 libcompiler_rt.dylib.__DATA
  0x00000008 data-ptrs        [0x00007fff9057ac50-0x00007fff9057ac58)  rw-  0x26cf1c50 0x00000008 0x00000006 libcompiler_rt.dylib.__DATA.__nl_symbol_ptr
  0x00000009 data-ptrs        [0x00007fff9057ac58-0x00007fff9057ac68)  rw-  0x26cf1c58 0x00000010 0x00000006 libcompiler_rt.dylib.__DATA.__got
  0x0000000a data-ptrs        [0x00007fff9057ac68-0x00007fff9057acf0)  rw-  0x26cf1c68 0x00000088 0x00000007 libcompiler_rt.dylib.__DATA.__la_symbol_ptr
  0x0000000b zero-fill        [0x00007fff9057acf0-0x00007fff9057bcf0)  rw-  0x26cf1cf0 0x00001000 0x00000001 libcompiler_rt.dylib.__DATA.__bss
  0x00000300 container        [0x00007fffc3288000-0x00007fffdb6ff1f8)  r--  0x599ff000 0x184771f8 0x00000000 libcompiler_rt.dylib.__LINKEDIT
Sections for '/usr/lib/system/libcopyfile.dylib' (x86_64):
  SectID     Type             Load Address                             Perm File Off.  File Size  Flags      Section Name
  ---------- ---------------- ---------------------------------------  ---- ---------- ---------- ---------- ----------------------------
  0x00000100 container        [0x00007fff69891000-0x00007fff6989b000)  r-x  0x00000000 0x0000a000 0x00000000 libcopyfile.dylib.__TEXT
  0x00000001 code             [0x00007fff69891e40-0x00007fff698991cc)  r-x  0x00000e40 0x0000738c 0x80000400 libcopyfile.dylib.__TEXT.__text
  0x00000002 code             [0x00007fff698991cc-0x00007fff69899436)  r-x  0x000081cc 0x0000026a 0x80000408 libcopyfile.dylib.__TEXT.__stubs
  0x00000003 code             [0x00007fff69899438-0x00007fff6989984e)  r-x  0x00008438 0x00000416 0x80000400 libcopyfile.dylib.__TEXT.__stub_helper
  0x00000004 regular          [0x00007fff69899850-0x00007fff698999f8)  r-x  0x00008850 0x000001a8 0x00000000 libcopyfile.dylib.__TEXT.__const
  0x00000005 data-cstr        [0x00007fff698999f8-0x00007fff6989aee5)  r-x  0x000089f8 0x000014ed 0x00000002 libcopyfile.dylib.__TEXT.__cstring
  0x00000006 compact-unwind   [0x00007fff6989aee8-0x00007fff6989afa0)  r-x  0x00009ee8 0x000000b8 0x00000000 libcopyfile.dylib.__TEXT.__unwind_info
  0x00000007 eh-frame         [0x00007fff6989afa0-0x00007fff6989aff8)  r-x  0x00009fa0 0x00000058 0x00000000 libcopyfile.dylib.__TEXT.__eh_frame